/*--------------------------------*- C++ -*----------------------------------*\
| =========                 |                                                 |
| \      /  F ield         | OpenFOAM: The Open Source CFD Toolbox           |
|  \    /   O peration     | Version:  v2412                                 |
|   \  /    A nd           | Project:  Bridge Deck Pressure-Flow Scour Study |
|    \/     M anipulation  | Author:   Divyansh Kumar Singh (IIT Kanpur)     |
\*---------------------------------------------------------------------------*/
FoamFile
{
    version     2.0;
    format      ascii;
    class       uniformDimensionedVectorField;
    location    "constant";
    object      g;
}
// * * * * * * * * * * * * * * * * * * * * * * * * * * * * * * * * * * * * * //

dimensions      [0 1 -2 0 0 0 0];
value           ( 0 -9.81 0 );


// ************************************************************************* //
